# Mol2 file generated by Materials Studio
@<TRIPOS>MOLECULE
structure
47 48 1 0 0
SMALL
USER_CHARGES


@<TRIPOS>ATOM
1 H30 22.4781 15.3377 8.40332 H 1 XXXX 0.025762
2 C11 22.3548 15.524 9.36944 C.3 1 XXXX -0.0366488
3 O2 22.684 16.3813 10.5104 O.3 1 XXXX -0.391013
4 C7 21.7711 16.7848 9.71859 C.3 1 XXXX 0.0750314
5 H31 21.3635 15.321 8.90502 H 1 XXXX 0.025762
6 C15 21.5901 17.8496 10.6258 C.3 1 XXXX 0.0789618
7 H27 21.6463 16.0986 10.5733 H 1 XXXX 0.0622258
8 O4 20.7179 17.4596 11.6098 O.3 1 XXXX -0.343464
9 H40 22.4352 18.192 11.1656 H 1 XXXX 0.0599788
10 H41 21.7717 18.823 10.3467 H 1 XXXX 0.0599788
11 C21 20.3837 18.4323 12.1626 C.2 1 XXXX 0.0750296
12 C23 21.3078 19.473 12.506 C.2 1 XXXX -0.0315114
13 C25 19.1119 18.5399 11.8401 C.2 1 XXXX -0.0315114
14 C17 21.3918 20.6953 12.8478 C.2 1 XXXX -0.0561071
15 H47 22.1514 19.5062 12.3635 H 1 XXXX 0.0650576
16 C19 18.8151 19.73 12.3245 C.2 1 XXXX -0.0561071
17 H49 18.5493 17.8722 11.321 H 1 XXXX 0.0650576
18 C9 19.9267 20.7034 12.7622 C.2 1 XXXX -0.0434449
19 H43 22.219 20.979 13.5947 H 1 XXXX 0.0626749
20 H45 17.8738 19.5766 12.5834 H 1 XXXX 0.0626749
21 C5 20.0634 21.07 13.926 C.3 1 XXXX -0.00257309
22 C8 19.5534 21.754 14.5283 C.2 1 XXXX -0.0434449
23 C16 20.6556 22.3807 15.2711 C.2 1 XXXX -0.0561071
24 C18 18.1536 21.5311 14.4797 C.2 1 XXXX -0.0561071
25 C22 20.08 23.134 16.1571 C.2 1 XXXX -0.0315114
26 H42 21.6415 22.3302 15.1113 H 1 XXXX 0.0626749
27 C24 18.0286 22.08 15.6079 C.2 1 XXXX -0.0315114
28 H44 17.4668 20.9247 13.8741 H 1 XXXX 0.0626749
29 C20 18.7623 22.9834 16.4198 C.2 1 XXXX 0.0750296
30 H46 20.5543 23.9078 16.4573 H 1 XXXX 0.0650576
31 H48 17.2131 22.283 15.0905 H 1 XXXX 0.0650576
32 O3 18.1819 24.0409 15.9837 O.3 1 XXXX -0.343464
33 C14 16.7869 24.161 16.5692 C.3 1 XXXX 0.0789618
34 C6 16.1758 24.4431 18.251 C.3 1 XXXX 0.0750314
35 H38 16.4115 23.1489 16.6234 H 1 XXXX 0.0599788
36 H39 16.2107 23.8549 15.6511 H 1 XXXX 0.0599788
37 O1 15.4394 25.095 17.232 O.3 1 XXXX -0.391013
38 C10 17.2538 24.9296 19.2046 C.3 1 XXXX -0.0366488
39 H26 15.4816 25.2233 19.0163 H 1 XXXX 0.0622258
40 H28 17.8672 24.9163 18.3503 H 1 XXXX 0.025762
41 H29 17.3814 25.1275 20.5081 H 1 XXXX 0.025762
42 H42 19.7635 20.1341 14.2514 H 1 XXXX 0.0365781
43 H43 20.2291 20.3787 14.6919 H 1 XXXX 0.0365781
44 H44 23.4485 15.4397 9.00955 H 1 XXXX 0.025762
45 H45 17.2064 25.7798 18.641 H 1 XXXX 0.025762
46 H46 14.7279 24.4723 16.8236 H 1 XXXX 0.210559
47 H47 23.4037 17.0008 10.7718 H 1 XXXX 0.210559
@<TRIPOS>BOND
1 2 1 1
2 4 2 1
3 2 5 1
4 3 4 1
5 4 6 1
6 4 7 1
7 8 6 1
8 6 9 1
9 6 10 1
10 8 11 1
11 11 12 2
12 11 13 1
13 14 12 1
14 12 15 1
15 16 13 2
16 13 17 1
17 18 14 2
18 14 19 1
19 18 16 1
20 16 20 1
21 21 18 1
22 21 22 1
23 22 23 2
24 22 24 1
25 23 25 1
26 23 26 1
27 24 27 2
28 24 28 1
29 29 25 2
30 25 30 1
31 29 27 1
32 27 31 1
33 32 29 1
34 32 33 1
35 34 33 1
36 33 35 1
37 33 36 1
38 37 34 1
39 34 38 1
40 34 39 1
41 38 40 1
42 38 41 1
43 21 42 1
44 21 43 1
45 2 44 1
46 38 45 1
47 37 46 1
48 3 47 1
@<TRIPOS>SUBSTRUCTURE
1 XXXX 1
@<TRIPOS>CRYSIN
25.0727 25.0727 25.0727 90 90 90 1 1
